<?xml version="1.0" encoding="UTF-8"?>

<!-- generated on 2025-10-07 15:54:54 by Eclipse SUMO netedit Version 1.24.0
-->

<routes xmlns:xsi="http://www.w3.org/2001/XMLSchema-instance" xsi:noNamespaceSchemaLocation="http://sumo.dlr.de/xsd/routes_file.xsd">
    <!-- Vehicles, persons and containers (sorted by depart) -->
    <trip id="t_x" depart="0.00" from="-E0" to="-E0.119"/>
    <trip id="t_y" depart="0.00" from="-E4" to="E3"/>
</routes>
